* DRB168L-40TF D model
* Model Generated by ROHM
* All Rights Reserved
* Commercial Use or
* Resale Restricted
* Date: 2016/04/08
.MODEL DRB168L-40TF D
+ IS=7.8797E-9
+ N=1.0625
+ RS=3.5340E-2
+ IKF=.46782
+ XTI=2
+ EG=.75
+ CJO=2.4600E-10
+ M=.50509
+ VJ=.57902
+ ISR=3.4750E-9
+ NR=1.3500
+ BV=40
+ TRS1=7.2000E-4